/*--------------------------------*- C++ -*----------------------------------*\
| solids4foam: solid mechanics and fluid-solid interaction simulations        |
| Version:     v2.3                                                           |
| Web:         https://solids4foam.github.io                                  |
| Disclaimer:  This offering is not approved or endorsed by OpenCFD Limited,  |
|              producer and distributor of the OpenFOAM software via          |
|              www.openfoam.com, and owner of the OPENFOAM® and OpenCFD®      |
|              trade marks.                                                   |
\*---------------------------------------------------------------------------*/
FoamFile
{
    version     2.0;
    format      ascii;
    class       dictionary;
<<<<<<<< HEAD:tutorials/fluids/vertex.channel/system/fvSolution
    object      fvSolution;
}
// * * * * * * * * * * * * * * * * * * * * * * * * * * * * * * * * * * * * * //

solvers
{}

relaxationFactors
{
    fields
    {
        //pointU    0.8;
    }
========
    object      thermalProperties;
}
// * * * * * * * * * * * * * * * * * * * * * * * * * * * * * * * * * * * * * //

thermal
{
    type            constant;
    C               C [0 2 -2 -1 0 0 0] 1010;
    k               k [1 1 -3 -1 0 0 0] 0.04;
>>>>>>>> development:tutorials/thermoFluidSolidInteraction/hotTJunction/constant/solid/thermalProperties
}

// ************************************************************************* //
