/*--------------------------------*- C++ -*----------------------------------*\
| =========                 |                                                 |
| \\      /  F ield         | OpenFOAM: The Open Source CFD Toolbox           |
|  \\    /   O peration     | Version:  2512                                  |
|   \\  /    A nd           | Website:  www.openfoam.com                      |
|    \\/     M anipulation  |                                                 |
\*---------------------------------------------------------------------------*/
// * * * * * * * * * * * * * * * * * * * * * * * * * * * * * * * * * * * * * //
FoamFile
{
    version         2;
    format          ascii;
    class           dictionary;
    location        "constant";
    object          transportProperties;
}

transportModel  Newtonian;

rho             rho [ 1 -3 0 0 0 0 0 ] 1;

nu              [ 0 2 -1 0 0 0 0 ] 0.00785398;


// ************************************************************************* //
