/*--------------------------------*- C++ -*----------------------------------*\
| =========                 |                                                 |
| \\      /  F ield         | foam-extend: Open Source CFD                    |
|  \\    /   O peration     | Version:     4.1                                |
|   \\  /    A nd           | Web:         http://www.foam-extend.org         |
|    \\/     M anipulation  |                                                 |
\*---------------------------------------------------------------------------*/
FoamFile
{
    version     2.0;
    format      ascii;
    class       dictionary;
    location    "constant";
    object      mechanicalProperties;
}
// * * * * * * * * * * * * * * * * * * * * * * * * * * * * * * * * * * * * * //

planeStress no;

mechanical
(
    rubber
    {
        type GuccioneElastic;
        pressureDisplacement yes;

        k k [ 1 -1 -2 0 0 0 0 ] 10000;
        cf 1;
        ct 1;
        cfs 1;

        impKcoeff 1;

        calculateStressInLocalCoordinateSystem false;
        //ventricle mora s false

        rho  rho    [ 1 -3  0 0 0 0 0 ] 1000;
        nu   nu     [ 0 0 0 0 0 0 0 ]   0.5;
    }

    // rubber
    // {
    //     type incompressibleNeoHookeanElastic;
    //     E E [ 1 -1 -2 0 0 0 0 ] 22500;
    //     rho rho [ 1 -3  0 0 0 0 0 ] 1000;
    //     nu nu [ 0 0 0 0 0 0 0 ] 0.5;
    // }
);

// neoHookean true;

// ************************************************************************* //
