/*--------------------------------*- C++ -*----------------------------------*\
| solids4foam: solid mechanics and fluid-solid interaction simulations        |
| Version:     v2.4                                                           |
| Web:         https://solids4foam.github.io                                  |
| Disclaimer:  This offering is not approved or endorsed by OpenCFD Limited,  |
|              producer and distributor of the OpenFOAM software via          |
|              www.openfoam.com, and owner of the OPENFOAM® and OpenCFD®      |
|              trade marks.                                                   |
\*---------------------------------------------------------------------------*/
FoamFile
{
    version     2.0;
    format      ascii;
    class       dictionary;
    object      mechanicalProperties;
}
// * * * * * * * * * * * * * * * * * * * * * * * * * * * * * * * * * * * * * //

planeStress no;

mechanical
(
    pipe
    {
        type HolzapfelGasserOgdenElastic;
        rho             rho [1 -3 0 0 0 0 0]  1200;
        E               E   [1 -1 -2 0 0 0 0] 132.69e3; //mu*3, mu = 150e3
        nu              nu  [0 0 0 0 0 0 0]   0.5;

        impKcoeff 1;

        // HGO parameters
        fibreAngle fibreAngle [0  0  0 0 0 0 0] 39.76;   // In respect to
                                                         // circum dir
        k1                 k1 [1 -1 -2 0 0 0 0] 0.206e3;
        k2                 k2 [0  0  0 0 0 0 0] 1.465;
    }
);

// ************************************************************************* //
